13
Coordinates from ORCA-job single-point-calc
  Cr  0.15646131126799      0.10390297347714     -0.07475802987489
  O   0.00463125372319     -0.09215895017673      1.70278592588373
  O   1.87281805018602      0.02319403374989     -0.60161807764672
  O   -0.62254019906756      1.67293576181907     -0.46924825261587
  O   -0.82848592442392     -1.23522348885534     -0.75365639995763
  H   -0.49479591326500     -2.05266106490599     -1.19086646234271
  H   -1.81221776813151     -1.23772524338664     -0.78914945566351
  H   -0.99239467378631      2.30608250276207      0.18820988151499
  H   -0.77517209145815      2.03121992208832     -1.37389556020262
  H   2.54773021189587     -0.60526864657905     -0.25312233222107
  H   2.30071649395644      0.63429199751190     -1.24579680182222
  H   0.57869695160878      0.33961703151118      2.37677907825782
  H   -0.63510270250585     -0.69469682901582      2.14874648669068
