19
Coordinates from ORCA-job opt
  O   0.04350477698666     -0.01287010973708      2.09286664946338
  Cr  0.00000171838283      0.00035519384045     -0.00035561007047
  O   0.17457141247765      0.01788442533874     -2.08688286532916
  O   2.09259473828012      0.06784865660764      0.06605353171664
  O   -2.09259035483894     -0.06605410001618     -0.06784970012624
  O   -0.17457018723625      2.08688273576633     -0.01788928386194
  O   -0.04350386113324     -2.09286743770455      0.01287425240685
  H   -0.35458668670866      0.52800109995036     -2.70716668977801
  H   0.72472989708757     -0.55977478553297     -2.62405063322523
  H   0.35453747557013      2.70716276886447     -0.52806275321724
  H   -0.72467441051225      2.62405544665570      0.55981698737926
  H   2.68503601254289      0.37661637829263     -0.62501296836330
  H   2.65966788021915     -0.20347887364102      0.79317719680488
  H   -0.49120407476984     -0.55753105842148      2.67800729519946
  H   0.52025711541629      0.59661721744570      2.66395168451746
  H   0.49115156556009     -2.67800713667524      0.55758852463413
  H   -0.52019816990330     -2.66395425059827     -0.59665677764213
  H   -2.68503472974247      0.62504475490640     -0.37653905483400
  H   -2.65965931767843     -0.79321042534163      0.20339901432566
